<?xml version="1.0" encoding="UTF-8"?>

<!-- generated on Thu Nov  3 18:50:18 2016 by SUMO netgenerate Version 0.25.0
<?xml version="1.0" encoding="UTF-8"?>

<configuration xmlns:xsi="http://www.w3.org/2001/XMLSchema-instance" xsi:noNamespaceSchemaLocation="http://sumo.dlr.de/xsd/netgenerateConfiguration.xsd">

    <grid_network>
        <grid value="true"/>
        <grid.number value="21"/>
        <grid.length value="250"/>
    </grid_network>

    <output>
        <output-file value="snowdonia.grid.net.xml"/>
    </output>

    <tls_building>
        <tls.guess value="true"/>
        <tls.join value="true"/>
    </tls_building>

    <processing>
        <no-turnarounds value="true"/>
        <no-turnarounds.tls value="true"/>
        <no-left-connections value="true"/>
    </processing>

    <building_defaults>
        <default.lanenumber value="2"/>
    </building_defaults>

</configuration>
-->

<net version="0.25" xmlns:xsi="http://www.w3.org/2001/XMLSchema-instance" xsi:noNamespaceSchemaLocation="http://sumo.dlr.de/xsd/net_file.xsd">

    <location netOffset="0.00,0.00" convBoundary="0.00,0.00,5000.00,5000.00" origBoundary="0.00,0.00,5000.00,5000.00" projParameter="!"/>

    <edge id=":0/0_0" function="internal">
        <lane id=":0/0_0_0" index="0" speed="13.90" length="15.89" shape="-4.95,6.55 -4.23,1.52 -2.08,-2.08 1.52,-4.23 6.55,-4.95"/>
        <lane id=":0/0_0_1" index="1" speed="13.90" length="15.89" shape="-1.65,6.55 -1.14,2.96 0.40,0.40 2.96,-1.14 6.55,-1.65"/>
    </edge>
    <edge id=":0/0_2" function="internal">
        <lane id=":0/0_2_0" index="0" speed="13.90" length="5.24" shape="6.55,4.95 5.85,5.05 5.35,5.35 5.05,5.85 4.95,6.55"/>
        <lane id=":0/0_2_1" index="1" speed="13.90" length="5.24" shape="6.55,1.65 4.41,1.96 2.87,2.87 1.96,4.41 1.65,6.55"/>
    </edge>
    <edge id=":0/1_0" function="internal">
        <lane id=":0/1_0_0" index="0" speed="13.90" length="16.10" shape="-4.95,258.05 -4.95,253.27 -4.95,250.00 -4.95,246.73 -4.95,241.95"/>
        <lane id=":0/1_0_1" index="1" speed="13.90" length="16.10" shape="-1.65,258.05 -1.65,253.27 -1.65,250.00 -1.65,246.73 -1.65,241.95"/>
    </edge>
    <edge id=":0/1_2" function="internal">
        <lane id=":0/1_2_0" index="0" speed="13.90" length="7.66" shape="8.05,254.95 6.69,255.14 5.73,255.72 5.14,256.69 4.95,258.05"/>
        <lane id=":0/1_2_1" index="1" speed="13.90" length="7.66" shape="8.05,251.65 5.25,252.05 3.25,253.25 2.05,255.25 1.65,258.05"/>
    </edge>
    <edge id=":0/1_4" function="internal">
        <lane id=":0/1_4_0" index="0" speed="13.90" length="6.42" shape="4.95,241.95 5.14,243.31 5.72,244.28 6.69,244.86 8.05,245.05"/>
        <lane id=":0/1_4_1" index="1" speed="13.90" length="6.42" shape="4.95,241.95 5.14,244.75 5.72,246.75 6.69,247.95 8.05,248.35"/>
    </edge>
    <edge id=":0/1_6" function="internal">
        <lane id=":0/1_6_0" index="0" speed="13.90" length="16.10" shape="4.95,241.95 4.95,246.73 4.95,250.00 4.95,253.27 4.95,258.05"/>
        <lane id=":0/1_6_1" index="1" speed="13.90" length="16.10" shape="1.65,241.95 1.65,246.73 1.65,250.00 1.65,253.27 1.65,258.05"/>
    </edge>
    <edge id=":0/10_0" function="internal">
        <lane id=":0/10_0_0" index="0" speed="13.90" length="16.10" shape="-4.95,2508.05 -4.95,2503.27 -4.95,2500.00 -4.95,2496.73 -4.95,2491.95"/>
        <lane id=":0/10_0_1" index="1" speed="13.90" length="16.10" shape="-1.65,2508.05 -1.65,2503.27 -1.65,2500.00 -1.65,2496.73 -1.65,2491.95"/>
    </edge>
    <edge id=":0/10_2" function="internal">
        <lane id=":0/10_2_0" index="0" speed="13.90" length="7.66" shape="8.05,2504.95 6.69,2505.14 5.72,2505.72 5.14,2506.69 4.95,2508.05"/>
        <lane id=":0/10_2_1" index="1" speed="13.90" length="7.66" shape="8.05,2501.65 5.25,2502.05 3.25,2503.25 2.05,2505.25 1.65,2508.05"/>
    </edge>
    <edge id=":0/10_4" function="internal">
        <lane id=":0/10_4_0" index="0" speed="13.90" length="6.42" shape="4.95,2491.95 5.14,2493.31 5.72,2494.28 6.69,2494.86 8.05,2495.05"/>
        <lane id=":0/10_4_1" index="1" speed="13.90" length="6.42" shape="4.95,2491.95 5.14,2494.75 5.72,2496.75 6.69,2497.95 8.05,2498.35"/>
    </edge>
    <edge id=":0/10_6" function="internal">
        <lane id=":0/10_6_0" index="0" speed="13.90" length="16.10" shape="4.95,2491.95 4.95,2496.73 4.95,2500.00 4.95,2503.27 4.95,2508.05"/>
        <lane id=":0/10_6_1" index="1" speed="13.90" length="16.10" shape="1.65,2491.95 1.65,2496.73 1.65,2500.00 1.65,2503.27 1.65,2508.05"/>
    </edge>
    <edge id=":0/11_0" function="internal">
        <lane id=":0/11_0_0" index="0" speed="13.90" length="16.10" shape="-4.95,2758.05 -4.95,2753.27 -4.95,2750.00 -4.95,2746.73 -4.95,2741.95"/>
        <lane id=":0/11_0_1" index="1" speed="13.90" length="16.10" shape="-1.65,2758.05 -1.65,2753.27 -1.65,2750.00 -1.65,2746.73 -1.65,2741.95"/>
    </edge>
    <edge id=":0/11_2" function="internal">
        <lane id=":0/11_2_0" index="0" speed="13.90" length="7.66" shape="8.05,2754.95 6.69,2755.14 5.72,2755.72 5.14,2756.69 4.95,2758.05"/>
        <lane id=":0/11_2_1" index="1" speed="13.90" length="7.66" shape="8.05,2751.65 5.25,2752.05 3.25,2753.25 2.05,2755.25 1.65,2758.05"/>
    </edge>
    <edge id=":0/11_4" function="internal">
        <lane id=":0/11_4_0" index="0" speed="13.90" length="6.42" shape="4.95,2741.95 5.14,2743.31 5.72,2744.28 6.69,2744.86 8.05,2745.05"/>
        <lane id=":0/11_4_1" index="1" speed="13.90" length="6.42" shape="4.95,2741.95 5.14,2744.75 5.72,2746.75 6.69,2747.95 8.05,2748.35"/>
    </edge>
    <edge id=":0/11_6" function="internal">
        <lane id=":0/11_6_0" index="0" speed="13.90" length="16.10" shape="4.95,2741.95 4.95,2746.73 4.95,2750.00 4.95,2753.27 4.95,2758.05"/>
        <lane id=":0/11_6_1" index="1" speed="13.90" length="16.10" shape="1.65,2741.95 1.65,2746.73 1.65,2750.00 1.65,2753.27 1.65,2758.05"/>
    </edge>
    <edge id=":0/12_0" function="internal">
        <lane id=":0/12_0_0" index="0" speed="13.90" length="16.10" shape="-4.95,3008.05 -4.95,3003.27 -4.95,3000.00 -4.95,2996.73 -4.95,2991.95"/>
        <lane id=":0/12_0_1" index="1" speed="13.90" length="16.10" shape="-1.65,3008.05 -1.65,3003.27 -1.65,3000.00 -1.65,2996.73 -1.65,2991.95"/>
    </edge>
    <edge id=":0/12_2" function="internal">
        <lane id=":0/12_2_0" index="0" speed="13.90" length="7.66" shape="8.05,3004.95 6.69,3005.14 5.72,3005.72 5.14,3006.69 4.95,3008.05"/>
        <lane id=":0/12_2_1" index="1" speed="13.90" length="7.66" shape="8.05,3001.65 5.25,3002.05 3.25,3003.25 2.05,3005.25 1.65,3008.05"/>
    </edge>
    <edge id=":0/12_4" function="internal">
        <lane id=":0/12_4_0" index="0" speed="13.90" length="6.42" shape="4.95,2991.95 5.14,2993.31 5.72,2994.28 6.69,2994.86 8.05,2995.05"/>
        <lane id=":0/12_4_1" index="1" speed="13.90" length="6.42" shape="4.95,2991.95 5.14,2994.75 5.72,2996.75 6.69,2997.95 8.05,2998.35"/>
    </edge>
    <edge id=":0/12_6" function="internal">
        <lane id=":0/12_6_0" index="0" speed="13.90" length="16.10" shape="4.95,2991.95 4.95,2996.73 4.95,3000.00 4.95,3003.27 4.95,3008.05"/>
        <lane id=":0/12_6_1" index="1" speed="13.90" length="16.10" shape="1.65,2991.95 1.65,2996.73 1.65,3000.00 1.65,3003.27 1.65,3008.05"/>
    </edge>
    <edge id=":0/13_0" function="internal">
        <lane id=":0/13_0_0" index="0" speed="13.90" length="16.10" shape="-4.95,3258.05 -4.95,3253.27 -4.95,3250.00 -4.95,3246.73 -4.95,3241.95"/>
        <lane id=":0/13_0_1" index="1" speed="13.90" length="16.10" shape="-1.65,3258.05 -1.65,3253.27 -1.65,3250.00 -1.65,3246.73 -1.65,3241.95"/>
    </edge>
    <edge id=":0/13_2" function="internal">
        <lane id=":0/13_2_0" index="0" speed="13.90" length="7.66" shape="8.05,3254.95 6.69,3255.14 5.72,3255.72 5.14,3256.69 4.95,3258.05"/>
        <lane id=":0/13_2_1" index="1" speed="13.90" length="7.66" shape="8.05,3251.65 5.25,3252.05 3.25,3253.25 2.05,3255.25 1.65,3258.05"/>
    </edge>
    <edge id=":0/13_4" function="internal">
        <lane id=":0/13_4_0" index="0" speed="13.90" length="6.42" shape="4.95,3241.95 5.14,3243.31 5.72,3244.28 6.69,3244.86 8.05,3245.05"/>
        <lane id=":0/13_4_1" index="1" speed="13.90" length="6.42" shape="4.95,3241.95 5.14,3244.75 5.72,3246.75 6.69,3247.95 8.05,3248.35"/>
    </edge>
    <edge id=":0/13_6" function="internal">
        <lane id=":0/13_6_0" index="0" speed="13.90" length="16.10" shape="4.95,3241.95 4.95,3246.73 4.95,3250.00 4.95,3253.27 4.95,3258.05"/>
        <lane id=":0/13_6_1" index="1" speed="13.90" length="16.10" shape="1.65,3241.95 1.65,3246.73 1.65,3250.00 1.65,3253.27 1.65,3258.05"/>
    </edge>
    <edge id=":0/14_0" function="internal">
        <lane id=":0/14_0_0" index="0" speed="13.90" length="16.10" shape="-4.95,3508.05 -4.95,3503.27 -4.95,3500.00 -4.95,3496.73 -4.95,3491.95"/>
        <lane id=":0/14_0_1" index="1" speed="13.90" length="16.10" shape="-1.65,3508.05 -1.65,3503.27 -1.65,3500.00 -1.65,3496.73 -1.65,3491.95"/>
    </edge>
    <edge id=":0/14_2" function="internal">
        <lane id=":0/14_2_0" index="0" speed="13.90" length="7.66" shape="8.05,3504.95 6.69,3505.14 5.72,3505.72 5.14,3506.69 4.95,3508.05"/>
        <lane id=":0/14_2_1" index="1" speed="13.90" length="7.66" shape="8.05,3501.65 5.25,3502.05 3.25,3503.25 2.05,3505.25 1.65,3508.05"/>
    </edge>
    <edge id=":0/14_4" function="internal">
        <lane id=":0/14_4_0" index="0" speed="13.90" length="6.42" shape="4.95,3491.95 5.14,3493.31 5.72,3494.28 6.69,3494.86 8.05,3495.05"/>
        <lane id=":0/14_4_1" index="1" speed="13.90" length="6.42" shape="4.95,3491.95 5.14,3494.75 5.72,3496.75 6.69,3497.95 8.05,3498.35"/>
    </edge>
    <edge id=":0/14_6" function="internal">
        <lane id=":0/14_6_0" index="0" speed="13.90" length="16.10" shape="4.95,3491.95 4.95,3496.73 4.95,3500.00 4.95,3503.27 4.95,3508.05"/>
        <lane id=":0/14_6_1" index="1" speed="13.90" length="16.10" shape="1.65,3491.95 1.65,3496.73 1.65,3500.00 1.65,3503.27 1.65,3508.05"/>
    </edge>
    <edge id=":0/15_0" function="internal">
        <lane id=":0/15_0_0" index="0" speed="13.90" length="16.10" shape="-4.95,3758.05 -4.95,3753.27 -4.95,3750.00 -4.95,3746.73 -4.95,3741.95"/>
        <lane id=":0/15_0_1" index="1" speed="13.90" length="16.10" shape="-1.65,3758.05 -1.65,3753.27 -1.65,3750.00 -1.65,3746.73 -1.65,3741.95"/>
    </edge>
    <edge id=":0/15_2" function="internal">
        <lane id=":0/15_2_0" index="0" speed="13.90" length="7.66" shape="8.05,3754.95 6.69,3755.14 5.72,3755.72 5.14,3756.69 4.95,3758.05"/>
        <lane id=":0/15_2_1" index="1" speed="13.90" length="7.66" shape="8.05,3751.65 5.25,3752.05 3.25,3753.25 2.05,3755.25 1.65,3758.05"/>
    </edge>
    <edge id=":0/15_4" function="internal">
        <lane id=":0/15_4_0" index="0" speed="13.90" length="6.42" shape="4.95,3741.95 5.14,3743.31 5.72,3744.28 6.69,3744.86 8.05,3745.05"/>
        <lane id=":0/15_4_1" index="1" speed="13.90" length="6.42" shape="4.95,3741.95 5.14,3744.75 5.72,3746.75 6.69,3747.95 8.05,3748.35"/>
    </edge>
    <edge id=":0/15_6" function="internal">
        <lane id=":0/15_6_0" index="0" speed="13.90" length="16.10" shape="4.95,3741.95 4.95,3746.73 4.95,3750.00 4.95,3753.27 4.95,3758.05"/>
        <lane id=":0/15_6_1" index="1" speed="13.90" length="16.10" shape="1.65,3741.95 1.65,3746.73 1.65,3750.00 1.65,3753.27 1.65,3758.05"/>
    </edge>
    <edge id=":0/16_0" function="internal">
        <lane id=":0/16_0_0" index="0" speed="13.90" length="16.10" shape="-4.95,4008.05 -4.95,4003.27 -4.95,4000.00 -4.95,3996.73 -4.95,3991.95"/>
        <lane id=":0/16_0_1" index="1" speed="13.90" length="16.10" shape="-1.65,4008.05 -1.65,4003.27 -1.65,4000.00 -1.65,3996.73 -1.65,3991.95"/>
    </edge>
    <edge id=":0/16_2" function="internal">
        <lane id=":0/16_2_0" index="0" speed="13.90" length="7.66" shape="8.05,4004.95 6.69,4005.14 5.73,4005.72 5.14,4006.69 4.95,4008.05"/>
        <lane id=":0/16_2_1" index="1" speed="13.90" length="7.66" shape="8.05,4001.65 5.25,4002.05 3.25,4003.25 2.05,4005.25 1.65,4008.05"/>
    </edge>
    <edge id=":0/16_4" function="internal">
        <lane id=":0/16_4_0" index="0" speed="13.90" length="6.42" shape="4.95,3991.95 5.14,3993.31 5.72,3994.28 6.69,3994.86 8.05,3995.05"/>
        <lane id=":0/16_4_1" index="1" speed="13.90" length="6.42" shape="4.95,3991.95 5.14,3994.75 5.73,3996.75 6.69,3997.95 8.05,3998.35"/>
    </edge>
    <edge id=":0/16_6" function="internal">
        <lane id=":0/16_6_0" index="0" speed="13.90" length="16.10" shape="4.95,3991.95 4.95,3996.73 4.95,4000.00 4.95,4003.27 4.95,4008.05"/>
        <lane id=":0/16_6_1" index="1" speed="13.90" length="16.10" shape="1.65,3991.95 1.65,3996.73 1.65,4000.00 1.65,4003.27 1.65,4008.05"/>
    </edge>
    <edge id=":0/17_0" function="internal">
        <lane id=":0/17_0_0" index="0" speed="13.90" length="16.10" shape="-4.95,4258.05 -4.95,4253.27 -4.95,4250.00 -4.95,4246.73 -4.95,4241.95"/>
        <lane id=":0/17_0_1" index="1" speed="13.90" length="16.10" shape="-1.65,4258.05 -1.65,4253.27 -1.65,4250.00 -1.65,4246.73 -1.65,4241.95"/>
    </edge>
    <edge id=":0/17_2" function="internal">
        <lane id=":0/17_2_0" index="0" speed="13.90" length="7.66" shape="8.05,4254.95 6.69,4255.14 5.73,4255.72 5.14,4256.69 4.95,4258.05"/>
        <lane id=":0/17_2_1" index="1" speed="13.90" length="7.66" shape="8.05,4251.65 5.25,4252.05 3.25,4253.25 2.05,4255.25 1.65,4258.05"/>
    </edge>
    <edge id=":0/17_4" function="internal">
        <lane id=":0/17_4_0" index="0" speed="13.90" length="6.42" shape="4.95,4241.95 5.14,4243.31 5.72,4244.27 6.69,4244.86 8.05,4245.05"/>
        <lane id=":0/17_4_1" index="1" speed="13.90" length="6.42" shape="4.95,4241.95 5.14,4244.75 5.72,4246.75 6.69,4247.95 8.05,4248.35"/>
    </edge>
    <edge id=":0/17_6" function="internal">
        <lane id=":0/17_6_0" index="0" speed="13.90" length="16.10" shape="4.95,4241.95 4.95,4246.73 4.95,4250.00 4.95,4253.27 4.95,4258.05"/>
        <lane id=":0/17_6_1" index="1" speed="13.90" length="16.10" shape="1.65,4241.95 1.65,4246.73 1.65,4250.00 1.65,4253.27 1.65,4258.05"/>
    </edge>
    <edge id=":0/18_0" function="internal">
        <lane id=":0/18_0_0" index="0" speed="13.90" length="16.10" shape="-4.95,4508.05 -4.95,4503.27 -4.95,4500.00 -4.95,4496.73 -4.95,4491.95"/>
        <lane id=":0/18_0_1" index="1" speed="13.90" length="16.10" shape="-1.65,4508.05 -1.65,4503.27 -1.65,4500.00 -1.65,4496.73 -1.65,4491.95"/>
    </edge>
    <edge id=":0/18_2" function="internal">
        <lane id=":0/18_2_0" index="0" speed="13.90" length="7.66" shape="8.05,4504.95 6.69,4505.14 5.73,4505.72 5.14,4506.69 4.95,4508.05"/>
        <lane id=":0/18_2_1" index="1" speed="13.90" length="7.66" shape="8.05,4501.65 5.25,4502.05 3.25,4503.25 2.05,4505.25 1.65,4508.05"/>
    </edge>
    <edge id=":0/18_4" function="internal">
        <lane id=":0/18_4_0" index="0" speed="13.90" length="6.42" shape="4.95,4491.95 5.14,4493.31 5.72,4494.27 6.69,4494.86 8.05,4495.05"/>
        <lane id=":0/18_4_1" index="1" speed="13.90" length="6.42" shape="4.95,4491.95 5.14,4494.75 5.72,4496.75 6.69,4497.95 8.05,4498.35"/>
    </edge>
    <edge id=":0/18_6" function="internal">
        <lane id=":0/18_6_0" index="0" speed="13.90" length="16.10" shape="4.95,4491.95 4.95,4496.73 4.95,4500.00 4.95,4503.27 4.95,4508.05"/>
        <lane id=":0/18_6_1" index="1" speed="13.90" length="16.10" shape="1.65,4491.95 1.65,4496.73 1.65,4500.00 1.65,4503.27 1.65,4508.05"/>
    </edge>
    <edge id=":0/19_0" function="internal">
        <lane id=":0/19_0_0" index="0" speed="13.90" length="16.10" shape="-4.95,4758.05 -4.95,4753.27 -4.95,4750.00 -4.95,4746.73 -4.95,4741.95"/>
        <lane id=":0/19_0_1" index="1" speed="13.90" length="16.10" shape="-1.65,4758.05 -1.65,4753.27 -1.65,4750.00 -1.65,4746.73 -1.65,4741.95"/>
    </edge>
    <edge id=":0/19_2" function="internal">
        <lane id=":0/19_2_0" index="0" speed="13.90" length="7.66" shape="8.05,4754.95 6.69,4755.14 5.72,4755.72 5.14,4756.69 4.95,4758.05"/>
        <lane id=":0/19_2_1" index="1" speed="13.90" length="7.66" shape="8.05,4751.65 5.25,4752.05 3.25,4753.25 2.05,4755.25 1.65,4758.05"/>
    </edge>
    <edge id=":0/19_4" function="internal">
        <lane id=":0/19_4_0" index="0" speed="13.90" length="6.42" shape="4.95,4741.95 5.14,4743.31 5.72,4744.27 6.69,4744.86 8.05,4745.05"/>
        <lane id=":0/19_4_1" index="1" speed="13.90" length="6.42" shape="4.95,4741.95 5.14,4744.75 5.72,4746.75 6.69,4747.95 8.05,4748.35"/>
    </edge>
    <edge id=":0/19_6" function="internal">
        <lane id=":0/19_6_0" index="0" speed="13.90" length="16.10" shape="4.95,4741.95 4.95,4746.73 4.95,4750.00 4.95,4753.27 4.95,4758.05"/>
        <lane id=":0/19_6_1" index="1" speed="13.90" length="16.10" shape="1.65,4741.95 1.65,4746.73 1.65,4750.00 1.65,4753.27 1.65,4758.05"/>
    </edge>
    <edge id=":0/2_0" function="internal">
        <lane id=":0/2_0_0" index="0" speed="13.90" length="16.10" shape="-4.95,508.05 -4.95,503.27 -4.95,500.00 -4.95,496.73 -4.95,491.95"/>
        <lane id=":0/2_0_1" index="1" speed="13.90" length="16.10" shape="-1.65,508.05 -1.65,503.27 -1.65,500.00 -1.65,496.73 -1.65,491.95"/>
    </edge>
    <edge id=":0/2_2" function="internal">
        <lane id=":0/2_2_0" index="0" speed="13.90" length="7.66" shape="8.05,504.95 6.69,505.14 5.72,505.72 5.14,506.69 4.95,508.05"/>
        <lane id=":0/2_2_1" index="1" speed="13.90" length="7.66" shape="8.05,501.65 5.25,502.05 3.25,503.25 2.05,505.25 1.65,508.05"/>
    </edge>
    <edge id=":0/2_4" function="internal">
        <lane id=":0/2_4_0" index="0" speed="13.90" length="6.42" shape="4.95,491.95 5.14,493.31 5.72,494.27 6.69,494.86 8.05,495.05"/>
        <lane id=":0/2_4_1" index="1" speed="13.90" length="6.42" shape="4.95,491.95 5.14,494.75 5.72,496.75 6.69,497.95 8.05,498.35"/>
    </edge>
    <edge id=":0/2_6" function="internal">
        <lane id=":0/2_6_0" index="0" speed="13.90" length="16.10" shape="4.95,491.95 4.95,496.73 4.95,500.00 4.95,503.27 4.95,508.05"/>
        <lane id=":0/2_6_1" index="1" speed="13.90" length="16.10" shape="1.65,491.95 1.65,496.73 1.65,500.00 1.65,503.27 1.65,508.05"/>
    </edge>
    <edge id=":0/20_0" function="internal">
        <lane id=":0/20_0_0" index="0" speed="13.90" length="15.89" shape="6.55,5004.95 1.52,5004.23 -2.07,5002.07 -4.23,4998.48 -4.95,4993.45"/>
        <lane id=":0/20_0_1" index="1" speed="13.90" length="15.89" shape="6.55,5001.65 2.96,5001.14 0.40,4999.60 -1.14,4997.04 -1.65,4993.45"/>
    </edge>
    <edge id=":0/20_2" function="internal">
        <lane id=":0/20_2_0" index="0" speed="13.90" length="5.24" shape="4.95,4993.45 5.05,4994.15 5.35,4994.65 5.85,4994.95 6.55,4995.05"/>
        <lane id=":0/20_2_1" index="1" speed="13.90" length="5.24" shape="1.65,4993.45 1.96,4995.59 2.87,4997.12 4.41,4998.04 6.55,4998.35"/>
    </edge>
    <edge id=":0/3_0" function="internal">
        <lane id=":0/3_0_0" index="0" speed="13.90" length="16.10" shape="-4.95,758.05 -4.95,753.27 -4.95,750.00 -4.95,746.73 -4.95,741.95"/>
        <lane id=":0/3_0_1" index="1" speed="13.90" length="16.10" shape="-1.65,758.05 -1.65,753.27 -1.65,750.00 -1.65,746.73 -1.65,741.95"/>
    </edge>
    <edge id=":0/3_2" function="internal">
        <lane id=":0/3_2_0" index="0" speed="13.90" length="7.66" shape="8.05,754.95 6.69,755.14 5.73,755.73 5.14,756.69 4.95,758.05"/>
        <lane id=":0/3_2_1" index="1" speed="13.90" length="7.66" shape="8.05,751.65 5.25,752.05 3.25,753.25 2.05,755.25 1.65,758.05"/>
    </edge>
    <edge id=":0/3_4" function="internal">
        <lane id=":0/3_4_0" index="0" speed="13.90" length="6.42" shape="4.95,741.95 5.14,743.31 5.72,744.27 6.69,744.86 8.05,745.05"/>
        <lane id=":0/3_4_1" index="1" speed="13.90" length="6.42" shape="4.95,741.95 5.14,744.75 5.72,746.75 6.69,747.95 8.05,748.35"/>
    </edge>
    <edge id=":0/3_6" function="internal">
        <lane id=":0/3_6_0" index="0" speed="13.90" length="16.10" shape="4.95,741.95 4.95,746.73 4.95,750.00 4.95,753.27 4.95,758.05"/>
        <lane id=":0/3_6_1" index="1" speed="13.90" length="16.10" shape="1.65,741.95 1.65,746.73 1.65,750.00 1.65,753.27 1.65,758.05"/>
    </edge>
    <edge id=":0/4_0" function="internal">
        <lane id=":0/4_0_0" index="0" speed="13.90" length="16.10" shape="-4.95,1008.05 -4.95,1003.27 -4.95,1000.00 -4.95,996.73 -4.95,991.95"/>
        <lane id=":0/4_0_1" index="1" speed="13.90" length="16.10" shape="-1.65,1008.05 -1.65,1003.27 -1.65,1000.00 -1.65,996.73 -1.65,991.95"/>
    </edge>
    <edge id=":0/4_2" function="internal">
        <lane id=":0/4_2_0" index="0" speed="13.90" length="7.66" shape="8.05,1004.95 6.69,1005.14 5.73,1005.73 5.14,1006.69 4.95,1008.05"/>
        <lane id=":0/4_2_1" index="1" speed="13.90" length="7.66" shape="8.05,1001.65 5.25,1002.05 3.25,1003.25 2.05,1005.25 1.65,1008.05"/>
    </edge>
    <edge id=":0/4_4" function="internal">
        <lane id=":0/4_4_0" index="0" speed="13.90" length="6.42" shape="4.95,991.95 5.14,993.31 5.72,994.27 6.69,994.86 8.05,995.05"/>
        <lane id=":0/4_4_1" index="1" speed="13.90" length="6.42" shape="4.95,991.95 5.14,994.75 5.72,996.75 6.69,997.95 8.05,998.35"/>
    </edge>
    <edge id=":0/4_6" function="internal">
        <lane id=":0/4_6_0" index="0" speed="13.90" length="16.10" shape="4.95,991.95 4.95,996.73 4.95,1000.00 4.95,1003.27 4.95,1008.05"/>
        <lane id=":0/4_6_1" index="1" speed="13.90" length="16.10" shape="1.65,991.95 1.65,996.73 1.65,1000.00 1.65,1003.27 1.65,1008.05"/>
    </edge>
    <edge id=":0/5_0" function="internal">
        <lane id=":0/5_0_0" index="0" speed="13.90" length="16.10" shape="-4.95,1258.05 -4.95,1253.27 -4.95,1250.00 -4.95,1246.73 -4.95,1241.95"/>
        <lane id=":0/5_0_1" index="1" speed="13.90" length="16.10" shape="-1.65,1258.05 -1.65,1253.27 -1.65,1250.00 -1.65,1246.73 -1.65,1241.95"/>
    </edge>
    <edge id=":0/5_2" function="internal">
        <lane id=":0/5_2_0" index="0" speed="13.90" length="7.66" shape="8.05,1254.95 6.69,1255.14 5.73,1255.73 5.14,1256.69 4.95,1258.05"/>
        <lane id=":0/5_2_1" index="1" speed="13.90" length="7.66" shape="8.05,1251.65 5.25,1252.05 3.25,1253.25 2.05,1255.25 1.65,1258.05"/>
    </edge>
    <edge id=":0/5_4" function="internal">
        <lane id=":0/5_4_0" index="0" speed="13.90" length="6.42" shape="4.95,1241.95 5.14,1243.31 5.72,1244.28 6.69,1244.86 8.05,1245.05"/>
        <lane id=":0/5_4_1" index="1" speed="13.90" length="6.42" shape="4.95,1241.95 5.14,1244.75 5.72,1246.75 6.69,1247.95 8.05,1248.35"/>
    </edge>
    <edge id=":0/5_6" function="internal">
        <lane id=":0/5_6_0" index="0" speed="13.90" length="16.10" shape="4.95,1241.95 4.95,1246.73 4.95,1250.00 4.95,1253.27 4.95,1258.05"/>
        <lane id=":0/5_6_1" index="1" speed="13.90" length="16.10" shape="1.65,1241.95 1.65,1246.73 1.65,1250.00 1.65,1253.27 1.65,1258.05"/>
    </edge>
    <edge id=":0/6_0" function="internal">
        <lane id=":0/6_0_0" index="0" speed="13.90" length="16.10" shape="-4.95,1508.05 -4.95,1503.27 -4.95,1500.00 -4.95,1496.73 -4.95,1491.95"/>
        <lane id=":0/6_0_1" index="1" speed="13.90" length="16.10" shape="-1.65,1508.05 -1.65,1503.27 -1.65,1500.00 -1.65,1496.73 -1.65,1491.95"/>
    </edge>
    <edge id=":0/6_2" function="internal">
        <lane id=":0/6_2_0" index="0" speed="13.90" length="7.66" shape="8.05,1504.95 6.69,1505.14 5.73,1505.73 5.14,1506.69 4.95,1508.05"/>
        <lane id=":0/6_2_1" index="1" speed="13.90" length="7.66" shape="8.05,1501.65 5.25,1502.05 3.25,1503.25 2.05,1505.25 1.65,1508.05"/>
    </edge>
    <edge id=":0/6_4" function="internal">
        <lane id=":0/6_4_0" index="0" speed="13.90" length="6.42" shape="4.95,1491.95 5.14,1493.31 5.72,1494.28 6.69,1494.86 8.05,1495.05"/>
        <lane id=":0/6_4_1" index="1" speed="13.90" length="6.42" shape="4.95,1491.95 5.14,1494.75 5.72,1496.75 6.69,1497.95 8.05,1498.35"/>
    </edge>
    <edge id=":0/6_6" function="internal">
        <lane id=":0/6_6_0" index="0" speed="13.90" length="16.10" shape="4.95,1491.95 4.95,1496.73 4.95,1500.00 4.95,1503.27 4.95,1508.05"/>
        <lane id=":0/6_6_1" index="1" speed="13.90" length="16.10" shape="1.65,1491.95 1.65,1496.73 1.65,1500.00 1.65,1503.27 1.65,1508.05"/>
    </edge>
    <edge id=":0/7_0" function="internal">
        <lane id=":0/7_0_0" index="0" speed="13.90" length="16.10" shape="-4.95,1758.05 -4.95,1753.27 -4.95,1750.00 -4.95,1746.73 -4.95,1741.95"/>
        <lane id=":0/7_0_1" index="1" speed="13.90" length="16.10" shape="-1.65,1758.05 -1.65,1753.27 -1.65,1750.00 -1.65,1746.73 -1.65,1741.95"/>
    </edge>
    <edge id=":0/7_2" function="internal">
        <lane id=":0/7_2_0" index="0" speed="13.90" length="7.66" shape="8.05,1754.95 6.69,1755.14 5.73,1755.73 5.14,1756.69 4.95,1758.05"/>
        <lane id=":0/7_2_1" index="1" speed="13.90" length="7.66" shape="8.05,1751.65 5.25,1752.05 3.25,1753.25 2.05,1755.25 1.65,1758.05"/>
    </edge>
    <edge id=":0/7_4" function="internal">
        <lane id=":0/7_4_0" index="0" speed="13.90" length="6.42" shape="4.95,1741.95 5.14,1743.31 5.72,1744.28 6.69,1744.86 8.05,1745.05"/>
        <lane id=":0/7_4_1" index="1" speed="13.90" length="6.42" shape="4.95,1741.95 5.14,1744.75 5.73,1746.75 6.69,1747.95 8.05,1748.35"/>
    </edge>
    <edge id=":0/7_6" function="internal">
        <lane id=":0/7_6_0" index="0" speed="13.90" length="16.10" shape="4.95,1741.95 4.95,1746.73 4.95,1750.00 4.95,1753.27 4.95,1758.05"/>
        <lane id=":0/7_6_1" index="1" speed="13.90" length="16.10" shape="1.65,1741.95 1.65,1746.73 1.65,1750.00 1.65,1753.27 1.65,1758.05"/>
    </edge>
    <edge id=":0/8_0" function="internal">
        <lane id=":0/8_0_0" index="0" speed="13.90" length="16.10" shape="-4.95,2008.05 -4.95,2003.27 -4.95,2000.00 -4.95,1996.73 -4.95,1991.95"/>
        <lane id=":0/8_0_1" index="1" speed="13.90" length="16.10" shape="-1.65,2008.05 -1.65,2003.27 -1.65,2000.00 -1.65,1996.73 -1.65,1991.95"/>
    </edge>
    <edge id=":0/8_2" function="internal">
        <lane id=":0/8_2_0" index="0" speed="13.90" length="7.66" shape="8.05,2004.95 6.69,2005.14 5.73,2005.73 5.14,2006.69 4.95,2008.05"/>
        <lane id=":0/8_2_1" index="1" speed="13.90" length="7.66" shape="8.05,2001.65 5.25,2002.05 3.25,2003.25 2.05,2005.25 1.65,2008.05"/>
    </edge>
    <edge id=":0/8_4" function="internal">
        <lane id=":0/8_4_0" index="0" speed="13.90" length="6.42" shape="4.95,1991.95 5.14,1993.31 5.72,1994.28 6.69,1994.86 8.05,1995.05"/>
        <lane id=":0/8_4_1" index="1" speed="13.90" length="6.42" shape="4.95,1991.95 5.14,1994.75 5.73,1996.75 6.69,1997.95 8.05,1998.35"/>
    </edge>
    <edge id=":0/8_6" function="internal">
        <lane id=":0/8_6_0" index="0" speed="13.90" length="16.10" shape="4.95,1991.95 4.95,1996.73 4.95,2000.00 4.95,2003.27 4.95,2008.05"/>
        <lane id=":0/8_6_1" index="1" speed="13.90" length="16.10" shape="1.65,1991.95 1.65,1996.73 1.65,2000.00 1.65,2003.27 1.65,2008.05"/>
    </edge>
    <edge id=":0/9_0" function="internal">
        <lane id=":0/9_0_0" index="0" speed="13.90" length="16.10" shape="-4.95,2258.05 -4.95,2253.27 -4.95,2250.00 -4.95,2246.73 -4.95,2241.95"/>
        <lane id=":0/9_0_1" index="1" speed="13.90" length="16.10" shape="-1.65,2258.05 -1.65,2253.27 -1.65,2250.00 -1.65,2246.73 -1.65,2241.95"/>
    </edge>
    <edge id=":0/9_2" function="internal">
        <lane id=":0/9_2_0" index="0" speed="13.90" length="7.66" shape="8.05,2254.95 6.69,2255.14 5.72,2255.72 5.14,2256.69 4.95,2258.05"/>
        <lane id=":0/9_2_1" index="1" speed="13.90" length="7.66" shape="8.05,2251.65 5.25,2252.05 3.25,2253.25 2.05,2255.25 1.65,2258.05"/>
    </edge>
    <edge id=":0/9_4" function="internal">
        <lane id=":0/9_4_0" index="0" speed="13.90" length="6.42" shape="4.95,2241.95 5.14,2243.31 5.72,2244.28 6.69,2244.86 8.05,2245.05"/>
        <lane id=":0/9_4_1" index="1" speed="13.90" length="6.42" shape="4.95,2241.95 5.14,2244.75 5.72,2246.75 6.69,2247.95 8.05,2248.35"/>
    </edge>
    <edge id=":0/9_6" function="internal">
        <lane id=":0/9_6_0" index="0" speed="13.90" length="16.10" shape="4.95,2241.95 4.95,2246.73 4.95,2250.00 4.95,2253.27 4.95,2258.05"/>
        <lane id=":0/9_6_1" index="1" speed="13.90" length="16.10" shape="1.65,2241.95 1.65,2246.73 1.65,2250.00 1.65,2253.27 1.65,2258.05"/>
    </edge>
    <edge id=":1/0_0" function="internal">
        <lane id=":1/0_0_0" index="0" speed="13.90" length="7.66" shape="245.05,8.05 244.86,6.69 244.28,5.73 243.31,5.14 241.95,4.95"/>
        <lane id=":1/0_0_1" index="1" speed="13.90" length="7.66" shape="248.35,8.05 247.95,5.25 246.75,3.25 244.75,2.05 241.95,1.65"/>
    </edge>
    <edge id=":1/0_2" function="internal">
        <lane id=":1/0_2_0" index="0" speed="13.90" length="6.42" shape="258.05,4.95 256.69,5.14 255.73,5.72 255.14,6.69 254.95,8.05"/>
        <lane id=":1/0_2_1" index="1" speed="13.90" length="6.42" shape="258.05,4.95 255.25,5.14 253.25,5.72 252.05,6.69 251.65,8.05"/>
    </edge>
    <edge id=":1/0_4" function="internal">
        <lane id=":1/0_4_0" index="0" speed="13.90" length="16.10" shape="258.05,4.95 253.27,4.95 250.00,4.95 246.73,4.95 241.95,4.95"/>
        <lane id=":1/0_4_1" index="1" speed="13.90" length="16.10" shape="258.05,1.65 253.27,1.65 250.00,1.65 246.73,1.65 241.95,1.65"/>
    </edge>
    <edge id=":1/0_6" function="internal">
        <lane id=":1/0_6_0" index="0" speed="13.90" length="16.10" shape="241.95,-4.95 246.73,-4.95 250.00,-4.95 253.27,-4.95 258.05,-4.95"/>
        <lane id=":1/0_6_1" index="1" speed="13.90" length="16.10" shape="241.95,-1.65 246.73,-1.65 250.00,-1.65 253.27,-1.65 258.05,-1.65"/>
    </edge>
    <edge id=":1/1_0" function="internal">
        <lane id=":1/1_0_0" index="0" speed="13.90" length="5.00" shape="245.05,258.05 244.86,256.69 244.28,255.73 243.31,255.14 241.95,254.95"/>
    </edge>
    <edge id=":1/1_1" function="internal">