<?xml version="1.0" encoding="UTF-8"?>

<!-- generated on Sat Nov  5 17:31:45 2016 by SUMO od2trips Version 0.25.0
<?xml version="1.0" encoding="UTF-8"?>

<configuration xmlns:xsi="http://www.w3.org/2001/XMLSchema-instance" xsi:noNamespaceSchemaLocation="http://sumo.dlr.de/xsd/od2tripsConfiguration.xsd">

    <input>
        <taz-files value="snowdonia.taz.xml"/>
        <od-matrix-files value="taxi.od.matrix,bus.od.matrix,tram.od.matrix,train.od.matrix"/>
    </input>

    <output>
        <output-file value="snowdonia.trips.xml"/>
        <flow-output value="snowdonia.flow.xml"/>
    </output>

</configuration>
-->

<routes xmlns:xsi="http://www.w3.org/2001/XMLSchema-instance" xsi:noNamespaceSchemaLocation="http://sumo.dlr.de/xsd/routes_file.xsd">
    <trip id="3848" depart="0.77" from="20/20to20/19" to="10/9to10/10" type="taxi" fromTaz="taxi_NE" toTaz="city_center" departLane="free" departSpeed="max"/>
    <trip id="8295" depart="1.72" from="19/0to19/1" to="10/9to10/10" type="taxi" fromTaz="taxi_SE" toTaz="city_center" departLane="free" departSpeed="max"/>
    <trip id="9367" depart="1.77" from="20/1to19/1" to="1/19to1/20" type="taxi" fromTaz="taxi_SE" toTaz="taxi_NW" departLane="free" departSpeed="max"/>
    <trip id="286" depart="2.83" from="14/19to14/20" to="10/10to11/10" type="bus" fromTaz="bus_NNE" toTaz="city_center" departLane="free" departSpeed="max"/>
    <trip id="2456" depart="3.69" from="10/11to10/10" to="20/0to19/0" type="taxi" fromTaz="city_center" toTaz="taxi_SE" departLane="free" departSpeed="max"/>
    <trip id="8636" depart="4.11" from="19/0to20/0" to="19/20to20/20" type="taxi" fromTaz="taxi_SE" toTaz="taxi_NE" departLane="free" departSpeed="max"/>
    <trip id="9072" depart="4.89" from="19/1to19/0" to="0/19to0/20" type="taxi" fromTaz="taxi_SE" toTaz="taxi_NW" departLane="free" departSpeed="max"/>
    <trip id="12873" depart="5.29" from="5/20to6/20" to="15/1to15/0" type="tram" fromTaz="tram_NNW" toTaz="tram_SSE" departLane="free" departSpeed="max"/>
    <trip id="8955" depart="5.38" from="19/0to19/1" to="20/19to19/19" type="taxi" fromTaz="taxi_SE" toTaz="taxi_NE" departLane="free" departSpeed="max"/>
    <trip id="7421" depart="5.67" from="0/20to0/19" to="19/0to19/1" type="taxi" fromTaz="taxi_NW" toTaz="taxi_SE" departLane="free" departSpeed="max"/>
    <trip id="12161" depart="6.13" from="0/0to1/0" to="19/0to20/0" type="taxi" fromTaz="taxi_SW" toTaz="taxi_SE" departLane="free" departSpeed="max"/>
    <trip id="6968" depart="6.33" from="1/19to1/20" to="20/0to20/1" type="taxi" fromTaz="taxi_NW" toTaz="taxi_SE" departLane="free" departSpeed="max"/>
    <trip id="9469" depart="7.48" from="19/0to19/1" to="0/20to1/20" type="taxi" fromTaz="taxi_SE" toTaz="taxi_NW" departLane="free" departSpeed="max"/>
    <trip id="7146" depart="7.77" from="0/19to0/20" to="19/1to20/1" type="taxi" fromTaz="taxi_NW" toTaz="taxi_SE" departLane="free" departSpeed="max"/>
    <trip id="4133" depart="8.70" from="20/20to20/19" to="0/20to1/20" type="taxi" fromTaz="taxi_NE" toTaz="taxi_NW" departLane="free" departSpeed="max"/>
    <trip id="3598" depart="8.99" from="10/10to9/10" to="14/0to15/0" type="tram" fromTaz="city_center" toTaz="tram_SSE" departLane="free" departSpeed="max"/>
    <trip id="10207" depart="9.13" from="20/1to19/1" to="1/0to0/0" type="taxi" fromTaz="taxi_SE" toTaz="taxi_SW" departLane="free" departSpeed="max"/>
    <trip id="7079" depart="9.39" from="0/20to1/20" to="20/0to19/0" type="taxi" fromTaz="taxi_NW" toTaz="taxi_SE" departLane="free" departSpeed="max"/>
    <trip id="12142" depart="9.90" from="0/1to0/0" to="19/0to19/1" type="taxi" fromTaz="taxi_SW" toTaz="taxi_SE" departLane="free" departSpeed="max"/>
    <trip id="1729" depart="10.16" from="11/10to10/10" to="19/20to20/20" type="taxi" fromTaz="city_center" toTaz="taxi_NE" departLane="free" departSpeed="max"/>
    <trip id="2244" depart="10.87" from="11/10to10/10" to="0/20to1/20" type="taxi" fromTaz="city_center" toTaz="taxi_NW" departLane="free" departSpeed="max"/>
    <trip id="6495" depart="11.86" from="0/20to1/20" to="19/20to19/19" type="taxi" fromTaz="taxi_NW" toTaz="taxi_NE" departLane="free" departSpeed="max"/>
    <trip id="8819" depart="12.00" from="20/0to20/1" to="19/19to19/20" type="taxi" fromTaz="taxi_SE" toTaz="taxi_NE" departLane="free" departSpeed="max"/>
    <trip id="9099" depart="14.75" from="19/0to19/1" to="0/19to1/19" type="taxi" fromTaz="taxi_SE" toTaz="taxi_NW" departLane="free" departSpeed="max"/>
    <trip id="10999" depart="15.36" from="1/0to1/1" to="20/19to20/20" type="taxi" fromTaz="taxi_SW" toTaz="taxi_NE" departLane="free" departSpeed="max"/>
    <trip id="8427" depart="18.10" from="19/0to19/1" to="19/20to19/19" type="taxi" fromTaz="taxi_SE" toTaz="taxi_NE" departLane="free" departSpeed="max"/>
    <trip id="11304" depart="18.13" from="1/0to1/1" to="1/20to1/19" type="taxi" fromTaz="taxi_SW" toTaz="taxi_NW" departLane="free" departSpeed="max"/>
    <trip id="2787" depart="18.38" from="10/10to10/11" to="19/0to19/1" type="taxi" fromTaz="city_center" toTaz="taxi_SE" departLane="free" departSpeed="max"/>
    <trip id="4629" depart="18.64" from="20/19to19/19" to="19/0to19/1" type="taxi" fromTaz="taxi_NE" toTaz="taxi_SE" departLane="free" departSpeed="max"/>
    <trip id="11003" depart="18.93" from="0/1to1/1" to="19/20to19/19" type="taxi" fromTaz="taxi_SW" toTaz="taxi_NE" departLane="free" departSpeed="max"/>
    <trip id="12028" depart="19.61" from="0/1to0/0" to="19/0to19/1" type="taxi" fromTaz="taxi_SW" toTaz="taxi_SE" departLane="free" departSpeed="max"/>
    <trip id="4904" depart="19.62" from="20/19to20/20" to="19/0to19/1" type="taxi" fromTaz="taxi_NE" toTaz="taxi_SE" departLane="free" departSpeed="max"/>
    <trip id="12512" depart="19.99" from="1/1to1/0" to="19/0to20/0" type="taxi" fromTaz="taxi_SW" toTaz="taxi_SE" departLane="free" departSpeed="max"/>
    <trip id="12707" depart="20.98" from="0/10to1/10" to="19/10to20/10" type="train" fromTaz="train_W" toTaz="train_E" departLane="free" departSpeed="max"/>
    <trip id="11165" depart="21.29" from="1/1to1/0" to="19/20to19/19" type="taxi" fromTaz="taxi_SW" toTaz="taxi_NE" departLane="free" departSpeed="max"/>
    <trip id="1593" depart="21.76" from="11/10to10/10" to="19/20to19/19" type="taxi" fromTaz="city_center" toTaz="taxi_NE" departLane="free" departSpeed="max"/>
    <trip id="7620" depart="23.02" from="1/19to0/19" to="0/1to1/1" type="taxi" fromTaz="taxi_NW" toTaz="taxi_SW" departLane="free" departSpeed="max"/>
    <trip id="9679" depart="23.21" from="19/0to19/1" to="0/19to1/19" type="taxi" fromTaz="taxi_SE" toTaz="taxi_NW" departLane="free" departSpeed="max"/>
    <trip id="2698" depart="23.34" from="10/10to10/9" to="20/0to20/1" type="taxi" fromTaz="city_center" toTaz="taxi_SE" departLane="free" departSpeed="max"/>
    <trip id="1141" depart="23.89" from="10/11to10/10" to="15/19to14/19" type="bus" fromTaz="city_center" toTaz="bus_NNE" departLane="free" departSpeed="max"/>
    <trip id="12531" depart="24.38" from="1/1to1/0" to="19/0to19/1" type="taxi" fromTaz="taxi_SW" toTaz="taxi_SE" departLane="free" departSpeed="max"/>
    <trip id="1422" depart="24.44" from="11/10to10/10" to="19/19to19/20" type="taxi" fromTaz="city_center" toTaz="taxi_NE" departLane="free" departSpeed="max"/>
    <trip id="10372" depart="24.79" from="1/0to0/0" to="11/10to10/10" type="taxi" fromTaz="taxi_SW" toTaz="city_center" departLane="free" departSpeed="max"/>
    <trip id="622" depart="24.98" from="5/1to6/1" to="14/20to15/20" type="bus" fromTaz="bus_SSW" toTaz="bus_NNE" departLane="free" departSpeed="max"/>
    <trip id="9414" depart="24.99" from="20/0to19/0" to="1/19to1/20" type="taxi" fromTaz="taxi_SE" toTaz="taxi_NW" departLane="free" departSpeed="max"/>
    <trip id="1767" depart="25.86" from="10/10to10/11" to="19/19to20/19" type="taxi" fromTaz="city_center" toTaz="taxi_NE" departLane="free" departSpeed="max"/>
    <trip id="6382" depart="27.62" from="1/19to0/19" to="19/20to20/20" type="taxi" fromTaz="taxi_NW" toTaz="taxi_NE" departLane="free" departSpeed="max"/>
    <trip id="8663" depart="27.79" from="19/1to19/0" to="20/20to20/19" type="taxi" fromTaz="taxi_SE" toTaz="taxi_NE" departLane="free" departSpeed="max"/>
    <trip id="7682" depart="28.23" from="1/20to1/19" to="0/0to1/0" type="taxi" fromTaz="taxi_NW" toTaz="taxi_SW" departLane="free" departSpeed="max"/>
    <trip id="3964" depart="28.73" from="19/19to19/20" to="10/10to10/11" type="taxi" fromTaz="taxi_NE" toTaz="city_center" departLane="free" departSpeed="max"/>
    <trip id="5403" depart="29.39" from="20/19to20/20" to="1/0to1/1" type="taxi" fromTaz="taxi_NE" toTaz="taxi_SW" departLane="free" departSpeed="max"/>
    <trip id="8825" depart="29.57" from="20/1to19/1" to="20/20to19/20" type="taxi" fromTaz="taxi_SE" toTaz="taxi_NE" departLane="free" departSpeed="max"/>
    <trip id="3548" depart="29.89" from="10/10to11/10" to="5/20to6/20" type="tram" fromTaz="city_center" toTaz="tram_NNW" departLane="free" departSpeed="max"/>
    <trip id="1970" depart="30.26" from="11/10to10/10" to="0/19to0/20" type="taxi" fromTaz="city_center" toTaz="taxi_NW" departLane="free" departSpeed="max"/>
    <trip id="10060" depart="30.87" from="20/0to19/0" to="0/1to0/0" type="taxi" fromTaz="taxi_SE" toTaz="taxi_SW" departLane="free" departSpeed="max"/>
    <trip id="11654" depart="31.65" from="1/1to0/1" to="0/19to1/19" type="taxi" fromTaz="taxi_SW" toTaz="taxi_NW" departLane="free" departSpeed="max"/>
    <trip id="8524" depart="33.57" from="19/1to20/1" to="19/19to19/20" type="taxi" fromTaz="taxi_SE" toTaz="taxi_NE" departLane="free" departSpeed="max"/>
    <trip id="1744" depart="35.00" from="10/11to10/10" to="20/19to20/20" type="taxi" fromTaz="city_center" toTaz="taxi_NE" departLane="free" departSpeed="max"/>
    <trip id="12213" depart="35.04" from="1/1to1/0" to="19/1to19/0" type="taxi" fromTaz="taxi_SW" toTaz="taxi_SE" departLane="free" departSpeed="max"/>
    <trip id="1265" depart="35.56" from="11/10to10/10" to="5/1to6/1" type="bus" fromTaz="city_center" toTaz="bus_SSW" departLane="free" departSpeed="max"/>
    <trip id="4847" depart="35.81" from="20/20to20/19" to="19/1to20/1" type="taxi" fromTaz="taxi_NE" toTaz="taxi_SE" departLane="free" departSpeed="max"/>
    <trip id="8833" depart="36.32" from="20/0to19/0" to="19/19to20/19" type="taxi" fromTaz="taxi_SE" toTaz="taxi_NE" departLane="free" departSpeed="max"/>
    <trip id="816" depart="36.64" from="6/0to6/1" to="10/10to11/10" type="bus" fromTaz="bus_SSW" toTaz="city_center" departLane="free" departSpeed="max"/>
    <trip id="2967" depart="37.59" from="10/10to10/11" to="0/0to0/1" type="taxi" fromTaz="city_center" toTaz="taxi_SW" departLane="free" departSpeed="max"/>
    <trip id="516" depart="37.74" from="5/1to5/0" to="15/20to14/20" type="bus" fromTaz="bus_SSW" toTaz="bus_NNE" departLane="free" departSpeed="max"/>
    <trip id="11628" depart="40.34" from="0/0to0/1" to="0/20to0/19" type="taxi" fromTaz="taxi_SW" toTaz="taxi_NW" departLane="free" departSpeed="max"/>
    <trip id="10089" depart="41.07" from="20/0to20/1" to="0/0to0/1" type="taxi" fromTaz="taxi_SE" toTaz="taxi_SW" departLane="free" departSpeed="max"/>
    <trip id="11806" depart="41.83" from="1/0to1/1" to="0/19to0/20" type="taxi" fromTaz="taxi_SW" toTaz="taxi_NW" departLane="free" departSpeed="max"/>
    <trip id="10201" depart="41.95" from="20/1to19/1" to="0/0to1/0" type="taxi" fromTaz="taxi_SE" toTaz="taxi_SW" departLane="free" departSpeed="max"/>
    <trip id="5552" depart="42.04" from="20/19to20/20" to="0/1to0/0" type="taxi" fromTaz="taxi_NE" toTaz="taxi_SW" departLane="free" departSpeed="max"/>
    <trip id="3363" depart="42.24" from="10/9to10/10" to="0/1to0/0" type="taxi" fromTaz="city_center" toTaz="taxi_SW" departLane="free" departSpeed="max"/>
    <trip id="3675" depart="42.53" from="10/9to10/10" to="15/0to15/1" type="tram" fromTaz="city_center" toTaz="tram_SSE" departLane="free" departSpeed="max"/>
    <trip id="4725" depart="43.31" from="19/19to20/19" to="19/0to19/1" type="taxi" fromTaz="taxi_NE" toTaz="taxi_SE" departLane="free" departSpeed="max"/>
    <trip id="7988" depart="43.53" from="0/20to1/20" to="1/1to1/0" type="taxi" fromTaz="taxi_NW" toTaz="taxi_SW" departLane="free" departSpeed="max"/>
    <trip id="6340" depart="44.44" from="0/20to1/20" to="20/20to19/20" type="taxi" fromTaz="taxi_NW" toTaz="taxi_NE" departLane="free" departSpeed="max"/>
    <trip id="10092" depart="44.96" from="19/0to19/1" to="1/0to0/0" type="taxi" fromTaz="taxi_SE" toTaz="taxi_SW" departLane="free" departSpeed="max"/>
    <trip id="2756" depart="45.59" from="10/9to10/10" to="19/1to20/1" type="taxi" fromTaz="city_center" toTaz="taxi_SE" departLane="free" departSpeed="max"/>
    <trip id="9189" depart="45.68" from="20/0to20/1" to="0/19to0/20" type="taxi" fromTaz="taxi_SE" toTaz="taxi_NW" departLane="free" departSpeed="max"/>
    <trip id="10823" depart="46.04" from="0/0to1/0" to="19/19to20/19" type="taxi" fromTaz="taxi_SW" toTaz="taxi_NE" departLane="free" departSpeed="max"/>
    <trip id="9686" depart="46.55" from="19/1to19/0" to="1/0to0/0" type="taxi" fromTaz="taxi_SE" toTaz="taxi_SW" departLane="free" departSpeed="max"/>
    <trip id="4696" depart="46.74" from="20/20to19/20" to="19/1to20/1" type="taxi" fromTaz="taxi_NE" toTaz="taxi_SE" departLane="free" departSpeed="max"/>
    <trip id="98" depart="47.01" from="14/20to15/20" to="6/1to5/1" type="bus" fromTaz="bus_NNE" toTaz="bus_SSW" departLane="free" departSpeed="max"/>
    <trip id="2268" depart="47.47" from="10/10to10/11" to="0/20to1/20" type="taxi" fromTaz="city_center" toTaz="taxi_NW" departLane="free" departSpeed="max"/>
    <trip id="12673" depart="48.96" from="20/10to19/10" to="0/10to1/10" type="train" fromTaz="train_E" toTaz="train_W" departLane="free" departSpeed="max"/>
    <trip id="2377" depart="49.06" from="11/10to10/10" to="19/1to19/0" type="taxi" fromTaz="city_center" toTaz="taxi_SE" departLane="free" departSpeed="max"/>
    <trip id="3965" depart="49.80" from="19/19to20/19" to="0/20to0/19" type="taxi" fromTaz="taxi_NE" toTaz="taxi_NW" departLane="free" departSpeed="max"/>
    <trip id="10521" depart="50.76" from="1/1to0/1" to="11/10to10/10" type="taxi" fromTaz="taxi_SW" toTaz="city_center" departLane="free" departSpeed="max"/>
    <trip id="1497" depart="51.68" from="10/10to10/9" to="20/19to20/20" type="taxi" fromTaz="city_center" toTaz="taxi_NE" departLane="free" departSpeed="max"/>
    <trip id="11123" depart="51.99" from="0/0to1/0" to="20/20to19/20" type="taxi" fromTaz="taxi_SW" toTaz="taxi_NE" departLane="free" departSpeed="max"/>
    <trip id="3110" depart="52.03" from="10/10to11/10" to="1/1to1/0" type="taxi" fromTaz="city_center" toTaz="taxi_SW" departLane="free" departSpeed="max"/>
    <trip id="3142" depart="52.62" from="10/9to10/10" to="1/1to0/1" type="taxi" fromTaz="city_center" toTaz="taxi_SW" departLane="free" departSpeed="max"/>
    <trip id="9552" depart="53.56" from="19/1to20/1" to="1/19to1/20" type="taxi" fromTaz="taxi_SE" toTaz="taxi_NW" departLane="free" departSpeed="max"/>
    <trip id="589" depart="53.69" from="5/1to5/0" to="14/20to14/19" type="bus" fromTaz="bus_SSW" toTaz="bus_NNE" departLane="free" departSpeed="max"/>
    <trip id="11493" depart="53.95" from="1/1to1/0" to="0/19to1/19" type="taxi" fromTaz="taxi_SW" toTaz="taxi_NW" departLane="free" departSpeed="max"/>
    <trip id="11707" depart="54.12" from="0/1to0/0" to="1/20to1/19" type="taxi" fromTaz="taxi_SW" toTaz="taxi_NW" departLane="free" departSpeed="max"/>
    <trip id="3936" depart="55.11" from="19/19to19/20" to="10/10to10/9" type="taxi" fromTaz="taxi_NE" toTaz="city_center" departLane="free" departSpeed="max"/>
    <trip id="4933" depart="55.54" from="20/20to19/20" to="19/1to19/0" type="taxi" fromTaz="taxi_NE" toTaz="taxi_SE" departLane="free" departSpeed="max"/>
    <trip id="6" depart="55.65" from="15/19to14/19" to="5/1to5/0" type="bus" fromTaz="bus_NNE" toTaz="bus_SSW" departLane="free" departSpeed="max"/>
    <trip id="10759" depart="56.26" from="1/1to1/0" to="19/19to20/19" type="taxi" fromTaz="taxi_SW" toTaz="taxi_NE" departLane="free" departSpeed="max"/>
    <trip id="6512" depart="56.76" from="1/20to1/19" to="19/19to20/19" type="taxi" fromTaz="taxi_NW" toTaz="taxi_NE" departLane="free" departSpeed="max"/>
    <trip id="1284" depart="57.42" from="9/10to10/10" to="5/0to6/0" type="bus" fromTaz="city_center" toTaz="bus_SSW" departLane="free" departSpeed="max"/>
    <trip id="8835" depart="57.46" from="19/1to19/0" to="19/20to19/19" type="taxi" fromTaz="taxi_SE" toTaz="taxi_NE" departLane="free" departSpeed="max"/>
    <trip id="6900" depart="57.80" from="1/19to1/20" to="19/1to19/0" type="taxi" fromTaz="taxi_NW" toTaz="taxi_SE" departLane="free" departSpeed="max"/>
    <trip id="9546" depart="58.04" from="20/0to19/0" to="0/20to1/20" type="taxi" fromTaz="taxi_SE" toTaz="taxi_NW" departLane="free" departSpeed="max"/>
    <trip id="6280" depart="58.57" from="0/20to0/19" to="20/19to20/20" type="taxi" fromTaz="taxi_NW" toTaz="taxi_NE" departLane="free" departSpeed="max"/>
    <trip id="2905" depart="60.82" from="10/10to10/11" to="1/0to0/0" type="taxi" fromTaz="city_center" toTaz="taxi_SW" departLane="free" departSpeed="max"/>
    <trip id="12868" depart="61.02" from="6/19to5/19" to="10/11to10/10" type="tram" fromTaz="tram_NNW" toTaz="city_center" departLane="free" departSpeed="max"/>
    <trip id="3971" depart="62.30" from="19/20to20/20" to="1/20to0/20" type="taxi" fromTaz="taxi_NE" toTaz="taxi_NW" departLane="free" departSpeed="max"/>
    <trip id="13128" depart="62.52" from="15/0to14/0" to="6/20to5/20" type="tram" fromTaz="tram_SSE" toTaz="tram_NNW" departLane="free" departSpeed="max"/>
    <trip id="8793" depart="63.06" from="20/1to19/1" to="20/19to19/19" type="taxi" fromTaz="taxi_SE" toTaz="taxi_NE" departLane="free" departSpeed="max"/>
    <trip id="1151" depart="63.18" from="10/10to11/10" to="14/20to14/19" type="bus" fromTaz="city_center" toTaz="bus_NNE" departLane="free" departSpeed="max"/>
    <trip id="7075" depart="63.60" from="0/20to0/19" to="19/0to20/0" type="taxi" fromTaz="taxi_NW" toTaz="taxi_SE" departLane="free" departSpeed="max"/>
    <trip id="2174" depart="64.13" from="10/11to10/10" to="0/20to0/19" type="taxi" fromTaz="city_center" toTaz="taxi_NW" departLane="free" departSpeed="max"/>
    <trip id="11797" depart="64.39" from="1/0to1/1" to="0/19to0/20" type="taxi" fromTaz="taxi_SW" toTaz="taxi_NW" departLane="free" departSpeed="max"/>
    <trip id="11438" depart="66.25" from="1/0to1/1" to="1/20to1/19" type="taxi" fromTaz="taxi_SW" toTaz="taxi_NW" departLane="free" departSpeed="max"/>
    <trip id="6412" depart="66.27" from="1/19to1/20" to="19/20to19/19" type="taxi" fromTaz="taxi_NW" toTaz="taxi_NE" departLane="free" departSpeed="max"/>
    <trip id="8435" depart="66.44" from="19/1to20/1" to="20/20to19/20" type="taxi" fromTaz="taxi_SE" toTaz="taxi_NE" departLane="free" departSpeed="max"/>
    <trip id="5231" depart="67.15" from="19/20to20/20" to="20/0to19/0" type="taxi" fromTaz="taxi_NE" toTaz="taxi_SE" departLane="free" departSpeed="max"/>
    <trip id="2703" depart="67.56" from="10/10to11/10" to="19/0to19/1" type="taxi" fromTaz="city_center" toTaz="taxi_SE" departLane="free" departSpeed="max"/>
    <trip id="12155" depart="68.45" from="1/0to1/1" to="19/1to19/0" type="taxi" fromTaz="taxi_SW" toTaz="taxi_SE" departLane="free" departSpeed="max"/>
    <trip id="10410" depart="68.54" from="0/0to1/0" to="11/10to10/10" type="taxi" fromTaz="taxi_SW" toTaz="city_center" departLane="free" departSpeed="max"/>
    <trip id="13172" depart="68.61" from="15/0to15/1" to="5/19to6/19" type="tram" fromTaz="tram_SSE" toTaz="tram_NNW" departLane="free" departSpeed="max"/>
    <trip id="1972" depart="68.69" from="9/10to10/10" to="1/19to0/19" type="taxi" fromTaz="city_center" toTaz="taxi_NW" departLane="free" departSpeed="max"/>
    <trip id="12377" depart="69.05" from="0/0to0/1" to="19/0to19/1" type="taxi" fromTaz="taxi_SW" toTaz="taxi_SE" departLane="free" departSpeed="max"/>
    <trip id="2263" depart="69.62" from="10/10to11/10" to="1/20to1/19" type="taxi" fromTaz="city_center" toTaz="taxi_NW" departLane="free" departSpeed="max"/>
    <trip id="2410" depart="69.81" from="10/10to10/9" to="19/1to19/0" type="taxi" fromTaz="city_center" toTaz="taxi_SE" departLane="free" departSpeed="max"/>
    <trip id="5422" depart="69.85" from="20/20to19/20" to="0/0to0/1" type="taxi" fromTaz="taxi_NE" toTaz="taxi_SW" departLane="free" departSpeed="max"/>
    <trip id="414" depart="70.25" from="5/0to6/0" to="14/19to15/19" type="bus" fromTaz="bus_SSW" toTaz="bus_NNE" departLane="free" departSpeed="max"/>
    <trip id="5594" depart="70.96" from="20/20to19/20" to="0/1to0/0" type="taxi" fromTaz="taxi_NE" toTaz="taxi_SW" departLane="free" departSpeed="max"/>
    <trip id="5742" depart="71.55" from="19/19to20/19" to="1/1to0/1" type="taxi" fromTaz="taxi_NE" toTaz="taxi_SW" departLane="free" departSpeed="max"/>
    <trip id="12121" depart="71.60" from="1/1to0/1" to="19/0to19/1" type="taxi" fromTaz="taxi_SW" toTaz="taxi_SE" departLane="free" departSpeed="max"/>
    <trip id="12015" depart="72.53" from="1/0to0/0" to="19/1to19/0" type="taxi" fromTaz="taxi_SW" toTaz="taxi_SE" departLane="free" departSpeed="max"/>
    <trip id="7948" depart="73.19" from="0/19to0/20" to="0/1to1/1" type="taxi" fromTaz="taxi_NW" toTaz="taxi_SW" departLane="free" departSpeed="max"/>
    <trip id="6212" depart="73.58" from="0/19to1/19" to="20/19to20/20" type="taxi" fromTaz="taxi_NW" toTaz="taxi_NE" departLane="free" departSpeed="max"/>
    <trip id="584" depart="73.98" from="6/1to6/0" to="15/20to14/20" type="bus" fromTaz="bus_SSW" toTaz="bus_NNE" departLane="free" departSpeed="max"/>
    <trip id="4063" depart="74.05" from="20/19to20/20" to="1/20to1/19" type="taxi" fromTaz="taxi_NE" toTaz="taxi_NW" departLane="free" departSpeed="max"/>
    <trip id="4156" depart="75.42" from="20/20to19/20" to="1/19to1/20" type="taxi" fromTaz="taxi_NE" toTaz="taxi_NW" departLane="free" departSpeed="max"/>
    <trip id="706" depart="76.05" from="5/0to6/0" to="14/19to14/20" type="bus" fromTaz="bus_SSW" toTaz="bus_NNE" departLane="free" departSpeed="max"/>
    <trip id="8740" depart="78.26" from="20/0to20/1" to="19/20to20/20" type="taxi" fromTaz="taxi_SE" toTaz="taxi_NE" departLane="free" departSpeed="max"/>
    <trip id="6168" depart="78.51" from="1/20to1/19" to="9/10to10/10" type="taxi" fromTaz="taxi_NW" toTaz="city_center" departLane="free" departSpeed="max"/>
    <trip id="6433" depart="79.19" from="1/19to1/20" to="20/20to19/20" type="taxi" fromTaz="taxi_NW" toTaz="taxi_NE" departLane="free" departSpeed="max"/>
    <trip id="9336" depart="81.14" from="19/0to19/1" to="0/20to0/19" type="taxi" fromTaz="taxi_SE" toTaz="taxi_NW" departLane="free" departSpeed="max"/>
    <trip id="5596" depart="81.49" from="19/19to19/20" to="1/0to0/0" type="taxi" fromTaz="taxi_NE" toTaz="taxi_SW" departLane="free" departSpeed="max"/>
    <trip id="2110" depart="81.58" from="10/10to11/10" to="1/19to0/19" type="taxi" fromTaz="city_center" toTaz="taxi_NW" departLane="free" departSpeed="max"/>
    <trip id="12463" depart="82.16" from="1/0to0/0" to="19/0to20/0" type="taxi" fromTaz="taxi_SW" toTaz="taxi_SE" departLane="free" departSpeed="max"/>
    <trip id="8938" depart="82.19" from="19/1to20/1" to="20/20to19/20" type="taxi" fromTaz="taxi_SE" toTaz="taxi_NE" departLane="free" departSpeed="max"/>
    <trip id="3147" depart="83.37" from="11/10to10/10" to="1/0to1/1" type="taxi" fromTaz="city_center" toTaz="taxi_SW" departLane="free" departSpeed="max"/>
    <trip id="11494" depart="83.59" from="1/1to0/1" to="0/20to1/20" type="taxi" fromTaz="taxi_SW" toTaz="taxi_NW" departLane="free" departSpeed="max"/>
    <trip id="9853" depart="83.99" from="19/1to20/1" to="0/1to1/1" type="taxi" fromTaz="taxi_SE" toTaz="taxi_SW" departLane="free" departSpeed="max"/>
    <trip id="12311" depart="84.42" from="0/0to0/1" to="19/1to19/0" type="taxi" fromTaz="taxi_SW" toTaz="taxi_SE" departLane="free" departSpeed="max"/>
    <trip id="10265" depart="84.65" from="20/1to19/1" to="0/1to1/1" type="taxi" fromTaz="taxi_SE" toTaz="taxi_SW" departLane="free" departSpeed="max"/>
    <trip id="7005" depart="85.05" from="1/19to0/19" to="19/1to19/0" type="taxi" fromTaz="taxi_NW" toTaz="taxi_SE" departLane="free" departSpeed="max"/>
    <trip id="10238" depart="85.07" from="19/0to19/1" to="0/0to1/0" type="taxi" fromTaz="taxi_SE" toTaz="taxi_SW" departLane="free" departSpeed="max"/>
    <trip id="2923" depart="85.77" from="10/9to10/10" to="1/1to0/1" type="taxi" fromTaz="city_center" toTaz="taxi_SW" departLane="free" departSpeed="max"/>
    <trip id="12056" depart="86.27" from="1/0to1/1" to="19/0to19/1" type="taxi" fromTaz="taxi_SW" toTaz="taxi_SE" departLane="free" departSpeed="max"/>
    <trip id="1834" depart="86.41" from="10/10to10/9" to="1/20to0/20" type="taxi" fromTaz="city_center" toTaz="taxi_NW" departLane="free" departSpeed="max"/>
    <trip id="2740" depart="86.44" from="10/10to11/10" to="20/1to19/1" type="taxi" fromTaz="city_center" toTaz="taxi_SE" departLane="free" departSpeed="max"/>
    <trip id="8320" depart="86.94" from="20/1to19/1" to="10/10to10/11" type="taxi" fromTaz="taxi_SE" toTaz="city_center" departLane="free" departSpeed="max"/>
    <trip id="5339" depart="88.45" from="20/19to19/19" to="0/1to0/0" type="taxi" fromTaz="taxi_NE" toTaz="taxi_SW" departLane="free" departSpeed="max"/>
    <trip id="5881" depart="89.66" from="19/20to19/19" to="1/0to0/0" type="taxi" fromTaz="taxi_NE" toTaz="taxi_SW" departLane="free" departSpeed="max"/>
    <trip id="6917" depart="89.67" from="1/19to0/19" to="20/0to20/1" type="taxi" fromTaz="taxi_NW" toTaz="taxi_SE" departLane="free" departSpeed="max"/>
    <trip id="788" depart="89.96" from="5/0to5/1" to="10/10to9/10" type="bus" fromTaz="bus_SSW" toTaz="city_center" departLane="free" departSpeed="max"/>
    <trip id="11004" depart="90.04" from="0/0to0/1" to="19/19to20/19" type="taxi" fromTaz="taxi_SW" toTaz="taxi_NE" departLane="free" departSpeed="max"/>
    <trip id="4692" depart="91.27" from="19/19to19/20" to="19/1to19/0" type="taxi" fromTaz="taxi_NE" toTaz="taxi_SE" departLane="free" departSpeed="max"/>
    <trip id="6617" depart="91.52" from="1/19to1/20" to="20/19to19/19" type="taxi" fromTaz="taxi_NW" toTaz="taxi_NE" departLane="free" departSpeed="max"/>
    <trip id="12419" depart="92.38" from="0/1to1/1" to="19/0to19/1" type="taxi" fromTaz="taxi_SW" toTaz="taxi_SE" departLane="free" departSpeed="max"/>
    <trip id="903" depart="92.51" from="5/0to6/0" to="10/10to11/10" type="bus" fromTaz="bus_SSW" toTaz="city_center" departLane="free" departSpeed="max"/>
    <trip id="3820" depart="93.17" from="20/19to19/19" to="10/11to10/10" type="taxi" fromTaz="taxi_NE" toTaz="city_center" departLane="free" departSpeed="max"/>
    <trip id="6254" depart="93.55" from="1/19to1/20" to="20/19to19/19" type="taxi" fromTaz="taxi_NW" toTaz="taxi_NE" departLane="free" departSpeed="max"/>
    <trip id="7659" depart="93.65" from="0/20to0/19" to="1/0to0/0" type="taxi" fromTaz="taxi_NW" toTaz="taxi_SW" departLane="free" departSpeed="max"/>
    <trip id="8287" depart="93.81" from="19/1to20/1" to="10/10to9/10" type="taxi" fromTaz="taxi_SE" toTaz="city_center" departLane="free" departSpeed="max"/>
    <trip id="2671" depart="94.22" from="10/10to10/9" to="19/1to20/1" type="taxi" fromTaz="city_center" toTaz="taxi_SE" departLane="free" departSpeed="max"/>
    <trip id="11979" depart="94.47" from="1/1to0/1" to="20/1to19/1" type="taxi" fromTaz="taxi_SW" toTaz="taxi_SE" departLane="free" departSpeed="max"/>
    <trip id="5025" depart="95.38" from="20/19to19/19" to="19/0to19/1" type="taxi" fromTaz="taxi_NE" toTaz="taxi_SE" departLane="free" departSpeed="max"/>
    <trip id="10296" depart="95.48" from="20/1to19/1" to="1/0to1/1" type="taxi" fromTaz="taxi_SE" toTaz="taxi_SW" departLane="free" departSpeed="max"/>
    <trip id="3720" depart="95.74" from="19/20to19/19" to="10/10to10/11" type="taxi" fromTaz="taxi_NE" toTaz="city_center" departLane="free" departSpeed="max"/>
    <trip id="11648" depart="95.86" from="1/0to0/0" to="0/20to1/20" type="taxi" fromTaz="taxi_SW" toTaz="taxi_NW" departLane="free" departSpeed="max"/>
    <trip id="2996" depart="96.06" from="10/10to10/11" to="0/0to1/0" type="taxi" fromTaz="city_center" toTaz="taxi_SW" departLane="free" departSpeed="max"/>
    <trip id="3802" depart="96.32" from="19/20to20/20" to="10/10to9/10" type="taxi" fromTaz="taxi_NE" toTaz="city_center" departLane="free" departSpeed="max"/>
    <trip id="12279" depart="96.36" from="1/0to1/1" to="20/0to19/0" type="taxi" fromTaz="taxi_SW" toTaz="taxi_SE" departLane="free" departSpeed="max"/>
    <trip id="10147" depart="96.92" from="19/0to19/1" to="1/0to0/0" type="taxi" fromTaz="taxi_SE" toTaz="taxi_SW" departLane="free" departSpeed="max"/>
    <trip id="3698" depart="98.27" from="9/10to10/10" to="15/0to15/1" type="tram" fromTaz="city_center" toTaz="tram_SSE" departLane="free" departSpeed="max"/>
    <trip id="4006" depart="99.63" from="19/20to20/20" to="0/19to0/20" type="taxi" fromTaz="taxi_NE" toTaz="taxi_NW" departLane="free" departSpeed="max"/>
    <trip id="10630" depart="101.67" from="0/1to0/0" to="19/20to19/19" type="taxi" fromTaz="taxi_SW" toTaz="taxi_NE" departLane="free" departSpeed="max"/>
    <trip id="2642" depart="101.80" from="10/9to10/10" to="19/1to19/0" type="taxi" fromTaz="city_center" toTaz="taxi_SE" departLane="free" departSpeed="max"/>
    <trip id="11607" depart="102.39" from="1/1to0/1" to="1/20to0/20" type="taxi" fromTaz="taxi_SW" toTaz="taxi_NW" departLane="free" departSpeed="max"/>
    <trip id="11693" depart="102.83" from="0/1to0/0" to="1/20to1/19" type="taxi" fromTaz="taxi_SW" toTaz="taxi_NW" departLane="free" departSpeed="max"/>
    <trip id="1899" depart="103.47" from="10/9to10/10" to="1/20to1/19" type="taxi" fromTaz="city_center" toTaz="taxi_NW" departLane="free" departSpeed="max"/>